Data_Gen/Output_Model/case_ieee123_storage_101.m
function mpc = case_ieee123_storage_101
%CASE_IEEE123_STORAGE_101

%% MATPOWER Case Format : Version 2
mpc.version = '2';

%%-----  Power Flow Data  -----%%
%% system MVA base
mpc.baseMVA = 1;

%% bus data
%	bus_i	type	Pd	Qd	Gs	Bs	area	Vm	Va	baseKV	zone	Vmax	Vmin
mpc.bus = [
	1	3	0.000318	0.000159	0	0	1	1	0	4.16	1	1.2	0.8;
	2	1	0.001076	0.000538	0	0	1	1	0	4.16	1	1.2	0.8;
	3	1	0.000438	0.000219	0	0	1	1	0	4.16	1	1.2	0.8;
	4	1	0.000243	0.0001215	0	0	1	1	0	4.16	1	1.2	0.8;
	5	1	0.000328	0.000164	0	0	1	1	0	4.16	1	1.2	0.8;
	6	1	1e-10	5e-11	0	0	1	1	0	4.16	1	1.2	0.8;
	7	1	1e-10	5e-11	0	0	1	1	0	4.16	1	1.2	0.8;
	8	1	0.000563	0.0002815	0	0	1	1	0	4.16	1	1.2	0.8;
	9	1	0.002358	0.001179	0	0	1	1	0	4.16	1	1.2	0.8;
	10	1	0.000385	0.0001925	0	0	1	1	0	4.16	1	1.2	0.8;
	11	1	0.0006	0.0003	0	0	1	1	0	4.16	1	1.2	0.8;
	12	1	0.000534	0.000267	0	0	1	1	0	4.16	1	1.2	0.8;
	13	1	0.000163	8.15e-05	0	0	1	1	0	4.16	1	1.2	0.8;
	14	1	1e-10	5e-11	0	0	1	1	0	4.16	1	1.2	0.8;
	15	1	0.000215	0.0001075	0	0	1	1	0	4.16	1	1.2	0.8;
	16	1	0.000193	9.65e-05	0	0	1	1	0	4.16	1	1.2	0.8;
	17	1	0.000297	0.0001485	0	0	1	1	0	4.16	1	1.2	0.8;
	18	1	0.00013	6.5e-05	0	0	1	1	0	4.16	1	1.2	0.8;
	19	1	0.000256	0.000128	0	0	1	1	0	4.16	1	1.2	0.8;
	20	1	0.000147	7.35e-05	0	0	1	1	0	4.16	1	1.2	0.8;
	21	1	0.000352	0.000176	0	0	1	1	0	4.16	1	1.2	0.8;
	22	1	0.000224	0.000112	0	0	1	1	0	4.16	1	1.2	0.8;
	23	1	0.000269	0.0001345	0	0	1	1	0	4.16	1	1.2	0.8;
	24	1	0.00106	0.00053	0	0	1	1	0	4.16	1	1.2	0.8;
	25	1	0.000319	0.0001595	0	0	1	1	0	4.16	1	1.2	0.8;
	26	1	0.000236	0.000118	0	0	1	1	0	4.16	1	1.2	0.8;
	27	1	0.000837	0.0004185	0	0	1	1	0	4.16	1	1.2	0.8;
	28	1	0.000452	0.000226	0	0	1	1	0	4.16	1	1.2	0.8;
	29	1	0.000423	0.0002115	0	0	1	1	0	4.16	1	1.2	0.8;
	30	1	0.000224	0.000112	0	0	1	1	0	4.16	1	1.2	0.8;
	31	1	0.000375	0.0001875	0	0	1	1	0	4.16	1	1.2	0.8;
	32	1	0.000492	0.000246	0	0	1	1	0	4.16	1	1.2	0.8;
	33	1	0.000547	0.0002735	0	0	1	1	0	4.16	1	1.2	0.8;
	34	1	0.00033	0.000165	0	0	1	1	0	4.16	1	1.2	0.8;
	35	1	0.000644	0.000322	0	0	1	1	0	4.16	1	1.2	0.8;
	36	1	5.4e-05	2.7e-05	0	0	1	1	0	4.16	1	1.2	0.8;
	37	1	9.2e-05	4.6e-05	0	0	1	1	0	4.16	1	1.2	0.8;
	38	1	0.000282	0.000141	0	0	1	1	0	4.16	1	1.2	0.8;
	39	1	0.000416	0.000208	0	0	1	1	0	4.16	1	1.2	0.8;
	40	1	0.000622	0.000311	0	0	1	1	0	4.16	1	1.2	0.8;
	41	1	0.000578	0.000289	0	0	1	1	0	4.16	1	1.2	0.8;
	42	1	0.000209	0.0001045	0	0	1	1	0	4.16	1	1.2	0.8;
	43	1	0.000284	0.000142	0	0	1	1	0	4.16	1	1.2	0.8;
	44	1	0.000402	0.000201	0	0	1	1	0	4.16	1	1.2	0.8;
	45	1	0.000543	0.0002715	0	0	1	1	0	4.16	1	1.2	0.8;
	46	1	0.000181	9.05e-05	0	0	1	1	0	4.16	1	1.2	0.8;
	47	1	0.000679	0.0003395	0	0	1	1	0	4.16	1	1.2	0.8;
	48	1	0.000576	0.000288	0	0	1	1	0	4.16	1	1.2	0.8;
	49	1	0.00067	0.000335	0	0	1	1	0	4.16	1	1.2	0.8;
	50	1	0.000328	0.000164	0	0	1	1	0	4.16	1	1.2	0.8;
	51	1	0.000327	0.0001635	0	0	1	1	0	4.16	1	1.2	0.8;
	52	1	0.00031	0.000155	0	0	1	1	0	4.16	1	1.2	0.8;
	53	1	0.000426	0.000213	0	0	1	1	0	4.16	1	1.2	0.8;
	54	1	0.000177	8.85e-05	0	0	1	1	0	4.16	1	1.2	0.8;
	55	1	0.000442	0.000221	0	0	1	1	0	4.16	1	1.2	0.8;
	56	1	0.000202	0.000101	0	0	1	1	0	4.16	1	1.2	0.8;
	57	1	0.000667	0.0003335	0	0	1	1	0	4.16	1	1.2	0.8;
	58	1	0.00044	0.00022	0	0	1	1	0	4.16	1	1.2	0.8;
	59	1	6.6e-05	3.3e-05	0	0	1	1	0	4.16	1	1.2	0.8;
	60	1	0.000103	5.15e-05	0	0	1	1	0	4.16	1	1.2	0.8;
];

%% generator data
%	bus	Pg	Qg	Qmax	Qmin	Vg	mBase	status	Pmax	Pmin	Pc1	Pc2	Qc1min	Qc1max	Qc2min	Qc2max	ramp_agc	ramp_10	ramp_30	ramp_q	apf
mpc.gen = [
	1	0.0241040003	0	200	-200	1	1	1	200	-200	0	0	0	0	0	0	10	0	0	0	0;
];

%% branch data
%	fbus	tbus	r	x	b	rateA	rateB	rateC	ratio	angle	status	angmin	angmax
mpc.branch = [
	1	2	0.0013398623	0.0027450827	3.02770272e-08	100	100	100	0	0	1	-80	80;
	1	2	0.0013398623	0.0027450827	3.02770272e-08	100	100	100	0	0	1	-80	80;
	2	3	0.0013398623	0.0027450827	3.02770272e-08	100	100	100	0	0	1	-80	80;
	3	4	0.0013398623	0.0027450827	3.02770272e-08	100	100	100	0	0	1	-80	80;
	4	5	0.0013398623	0.0027450827	3.02770272e-08	100	100	100	0	0	1	-80	80;
	5	6	0.0013398623	0.0027450827	3.02770272e-08	100	100	100	0	0	1	-80	80;
	6	7	0.0013398623	0.0027450827	3.02770272e-08	100	100	100	0	0	1	-80	80;
	7	8	0.0013398623	0.0027450827	3.02770272e-08	100	100	100	0	0	1	-80	80;
	8	9	0.0013398623	0.0027450827	3.02770272e-08	100	100	100	0	0	1	-80	80;
	9	10	0.0013398623	0.0027450827	3.02770272e-08	100	100	100	0	0	1	-80	80;
	10	11	0.0013398623	0.0027450827	3.02770272e-08	100	100	100	0	0	1	-80	80;
	11	12	0.0013398623	0.0027450827	3.02770272e-08	100	100	100	0	0	1	-80	80;
	12	13	0.0013398623	0.0027450827	3.02770272e-08	100	100	100	0	0	1	-80	80;
	13	14	0.0013398623	0.0027450827	3.02770272e-08	100	100	100	0	0	1	-80	80;
	14	15	0.0013398623	0.0027450827	3.02770272e-08	100	100	100	0	0	1	-80	80;
	15	16	0.0013398623	0.0027450827	3.02770272e-08	100	100	100	0	0	1	-80	80;
	16	17	0.0013398623	0.0027450827	3.02770272e-08	100	100	100	0	0	1	-80	80;
	17	18	0.0013398623	0.0027450827	3.02770272e-08	100	100	100	0	0	1	-80	80;
	18	19	0.0013398623	0.0027450827	3.02770272e-08	100	100	100	0	0	1	-80	80;
	19	20	0.0013398623	0.0027450827	3.02770272e-08	100	100	100	0	0	1	-80	80;
	20	21	0.0013398623	0.0027450827	3.02770272e-08	100	100	100	0	0	1	-80	80;
	21	22	0.0013398623	0.0027450827	3.02770272e-08	100	100	100	0	0	1	-80	80;
	22	23	0.0013398623	0.0027450827	3.02770272e-08	100	100	100	0	0	1	-80	80;
	23	24	0.0013398623	0.0027450827	3.02770272e-08	100	100	100	0	0	1	-80	80;
	24	25	0.0013398623	0.0027450827	3.02770272e-08	100	100	100	0	0	1	-80	80;
	25	26	0.0013398623	0.0027450827	3.02770272e-08	100	100	100	0	0	1	-80	80;
	26	27	0.0013398623	0.0027450827	3.02770272e-08	100	100	100	0	0	1	-80	80;
	27	28	0.0013398623	0.0027450827	3.02770272e-08	100	100	100	0	0	1	-80	80;
	28	29	0.0013398623	0.0027450827	3.02770272e-08	100	100	100	0	0	1	-80	80;
	1	30	0.0013398623	0.0027450827	3.02770272e-08	100	100	100	0	0	1	-80	80;
	30	31	0.0013398623	0.0027450827	3.02770272e-08	100	100	100	0	0	1	-80	80;
	31	32	0.0013398623	0.0027450827	3.02770272e-08	100	100	100	0	0	1	-80	80;
	32	33	0.0013398623	0.0027450827	3.02770272e-08	100	100	100	0	0	1	-80	80;
	33	34	0.0013398623	0.0027450827	3.02770272e-08	100	100	100	0	0	1	-80	80;
	34	35	0.0013398623	0.0027450827	3.02770272e-08	100	100	100	0	0	1	-80	80;
	35	36	0.0013398623	0.0027450827	3.02770272e-08	100	100	100	0	0	1	-80	80;
	36	37	0.0013398623	0.0027450827	3.02770272e-08	100	100	100	0	0	1	-80	80;
	37	38	0.0013398623	0.0027450827	3.02770272e-08	100	100	100	0	0	1	-80	80;
	38	39	0.0013398623	0.0027450827	3.02770272e-08	100	100	100	0	0	1	-80	80;
	39	40	0.0013398623	0.0027450827	3.02770272e-08	100	100	100	0	0	1	-80	80;
	40	41	0.0013398623	0.0027450827	3.02770272e-08	100	100	100	0	0	1	-80	80;
	41	42	0.0013398623	0.0027450827	3.02770272e-08	100	100	100	0	0	1	-80	80;
	42	43	0.0013398623	0.0027450827	3.02770272e-08	100	100	100	0	0	1	-80	80;
	43	44	0.0013398623	0.0027450827	3.02770272e-08	100	100	100	0	0	1	-80	80;
	44	45	0.0013398623	0.0027450827	3.02770272e-08	100	100	100	0	0	1	-80	80;
	45	46	0.0013398623	0.0027450827	3.02770272e-08	100	100	100	0	0	1	-80	80;
	46	47	0.0013398623	0.0027450827	3.02770272e-08	100	100	100	0	0	1	-80	80;
	47	48	0.0013398623	0.0027450827	3.02770272e-08	100	100	100	0	0	1	-80	80;
	48	49	0.0013398623	0.0027450827	3.02770272e-08	100	100	100	0	0	1	-80	80;
	49	50	0.0013398623	0.0027450827	3.02770272e-08	100	100	100	0	0	1	-80	80;
	50	51	0.0013398623	0.0027450827	3.02770272e-08	100	100	100	0	0	1	-80	80;
	51	52	0.0013398623	0.0027450827	3.02770272e-08	100	100	100	0	0	1	-80	80;
	52	53	0.0013398623	0.0027450827	3.02770272e-08	100	100	100	0	0	1	-80	80;
	53	54	0.0013398623	0.0027450827	3.02770272e-08	100	100	100	0	0	1	-80	80;
	54	55	0.0013398623	0.0027450827	3.02770272e-08	100	100	100	0	0	1	-80	80;
	55	56	0.0013398623	0.0027450827	3.02770272e-08	100	100	100	0	0	1	-80	80;
	56	57	0.0013398623	0.0027450827	3.02770272e-08	100	100	100	0	0	1	-80	80;
	57	58	0.0013398623	0.0027450827	3.02770272e-08	100	100	100	0	0	1	-80	80;
	58	59	0.0013398623	0.0027450827	3.02770272e-08	100	100	100	0	0	1	-80	80;
	59	60	0.0013398623	0.0027450827	3.02770272e-08	100	100	100	0	0	1	-80	80;
];

%%-----  OPF Data  -----%%
%% generator cost data
%	1	startup	shutdown	n	x1	y1	...	xn	yn
%	2	startup	shutdown	n	c(n-1)	...	c0
mpc.gencost = [
	2	0	0	3	1	1	0;
];
     %% storage data
 % hours;
mpc.time_elapsed = 0.0167
